Version 4
SHEET 1 1080 680
WIRE 320 -16 320 -48
WIRE 320 80 320 64
WIRE 544 80 320 80
WIRE 720 80 544 80
WIRE 960 80 960 -32
WIRE 320 96 320 80
WIRE 544 112 544 80
WIRE 720 112 720 80
WIRE 96 176 48 176
WIRE 144 176 96 176
WIRE 320 176 224 176
WIRE 320 208 320 176
WIRE 96 224 96 176
WIRE 960 304 960 160
WIRE 96 320 96 288
WIRE 320 320 320 288
WIRE 320 320 96 320
WIRE 544 320 544 176
WIRE 544 320 320 320
WIRE 720 320 720 176
WIRE 720 320 544 320
WIRE 320 368 320 320
FLAG 48 176 ADC
FLAG 320 -48 Battery
FLAG 320 368 0
FLAG 960 -32 Battery
FLAG 960 304 0
SYMBOL res 304 -32 R0
SYMATTR InstName R1
SYMATTR Value 100
SYMBOL res 304 80 R0
SYMATTR InstName R2
SYMATTR Value 1Meg
SYMBOL res 304 192 R0
SYMATTR InstName R3
SYMATTR Value 220k
SYMBOL res 240 160 R90
WINDOW 0 0 56 VBottom 2
WINDOW 3 32 56 VTop 2
SYMATTR InstName R4
SYMATTR Value 1k
SYMBOL cap 704 112 R0
SYMATTR InstName C2
SYMATTR Value 100n
SYMATTR SpiceLine V=50V
SYMBOL diode 560 176 R180
WINDOW 0 24 64 Left 2
WINDOW 3 24 0 Left 2
SYMATTR InstName D1
SYMATTR Value DI_BZT52C18
SYMATTR Prefix X
SYMBOL cap 80 224 R0
SYMATTR InstName C1
SYMATTR Value 10n
SYMATTR SpiceLine V=50
SYMBOL voltage 960 64 R0
WINDOW 123 0 0 Left 0
WINDOW 39 0 0 Left 0
SYMATTR InstName V1
SYMATTR Value {Vbatt}
TEXT 512 472 Left 2 !.LIB BZT52C18.spice.txt
TEXT 512 512 Left 2 !.step param Vbatt 9 36 1
TEXT -8 536 Left 2 !.op
