Version 4
SHEET 1 6028 920
WIRE -592 -32 -592 -96
WIRE -416 -32 -416 -96
WIRE -240 -32 -240 -96
WIRE -592 80 -592 48
WIRE -416 80 -416 48
WIRE -240 80 -240 48
WIRE 192 112 96 112
WIRE 304 112 256 112
WIRE 592 112 384 112
WIRE 192 224 96 224
WIRE 304 224 256 224
WIRE 416 224 384 224
WIRE 528 224 496 224
WIRE 688 224 608 224
WIRE -592 368 -592 304
WIRE -432 368 -432 304
WIRE 304 368 272 368
WIRE 416 368 384 368
WIRE 576 368 480 368
WIRE 192 416 192 368
WIRE 192 416 16 416
WIRE 576 416 576 368
WIRE 688 416 576 416
WIRE 192 464 192 416
WIRE 304 464 256 464
WIRE 416 464 384 464
WIRE 576 464 576 416
WIRE 576 464 496 464
WIRE -592 480 -592 448
WIRE -432 480 -432 448
WIRE 176 592 80 592
WIRE 288 592 240 592
WIRE 400 592 368 592
WIRE 512 592 480 592
WIRE 832 592 592 592
WIRE -592 768 -592 704
WIRE -432 768 -432 704
WIRE -592 880 -592 848
WIRE -432 880 -432 848
FLAG 96 112 Vbatt
FLAG 592 112 altern_act_lo
FLAG 96 224 Vbatt
FLAG 688 224 ABS_act_lo
FLAG 16 416 L_turn_act_hi
FLAG 688 416 R_turn_act_hi
FLAG 80 592 V+
FLAG 832 592 V-
FLAG -240 80 0
FLAG -240 -96 Vbatt
FLAG -416 80 0
FLAG -416 -96 altern_act_lo
FLAG -592 80 0
FLAG -592 -96 ABS_act_lo
FLAG -592 480 0
FLAG -592 304 L_turn_act_hi
FLAG -432 480 0
FLAG -432 304 R_turn_act_hi
FLAG -592 880 0
FLAG -592 704 V+
FLAG -432 880 0
FLAG -432 704 V-
SYMBOL schottky 192 128 R270
WINDOW 0 32 32 VTop 2
WINDOW 3 0 32 VBottom 2
SYMATTR InstName Daltern
SYMATTR Value BAT54
SYMATTR Description Diode
SYMATTR Type diode
SYMBOL res 400 96 R90
WINDOW 0 0 56 VBottom 2
WINDOW 3 32 56 VTop 2
SYMATTR InstName R1
SYMATTR Value 100
SYMATTR SpiceLine tol=1 pwr=2
SYMBOL schottky 192 240 R270
WINDOW 0 32 32 VTop 2
WINDOW 3 0 32 VBottom 2
SYMATTR InstName DABS
SYMATTR Value BAT54
SYMATTR Description Diode
SYMATTR Type diode
SYMBOL res 400 208 R90
WINDOW 0 0 56 VBottom 2
WINDOW 3 32 56 VTop 2
SYMATTR InstName R2
SYMATTR Value 150
SYMATTR SpiceLine tol=1 pwr=1
SYMBOL res 512 208 R90
WINDOW 0 0 56 VBottom 2
WINDOW 3 32 56 VTop 2
SYMATTR InstName R3
SYMATTR Value 15
SYMATTR SpiceLine tol=1 pwr=250m
SYMBOL res 624 208 R90
WINDOW 0 0 56 VBottom 2
WINDOW 3 32 56 VTop 2
SYMATTR InstName R4
SYMATTR Value 15
SYMATTR SpiceLine tol=1 pwr=250m
SYMBOL res 288 352 R90
WINDOW 0 0 56 VBottom 2
WINDOW 3 32 56 VTop 2
SYMATTR InstName R5
SYMATTR Value 100
SYMATTR SpiceLine tol=1 pwr=2
SYMBOL res 400 352 R90
WINDOW 0 0 56 VBottom 2
WINDOW 3 32 56 VTop 2
SYMATTR InstName R6
SYMATTR Value 150
SYMATTR SpiceLine tol=1 pwr=1
SYMBOL schottky 416 384 R270
WINDOW 0 32 32 VTop 2
WINDOW 3 0 32 VBottom 2
SYMATTR InstName DLTurn
SYMATTR Value BAT54
SYMATTR Description Diode
SYMATTR Type diode
SYMBOL schottky 256 448 R90
WINDOW 0 0 32 VBottom 2
WINDOW 3 32 32 VTop 2
SYMATTR InstName DRTurn
SYMATTR Value BAT54
SYMATTR Description Diode
SYMATTR Type diode
SYMBOL res 512 448 R90
WINDOW 0 0 56 VBottom 2
WINDOW 3 32 56 VTop 2
SYMATTR InstName R7
SYMATTR Value 100
SYMATTR SpiceLine tol=1 pwr=2
SYMBOL res 400 448 R90
WINDOW 0 0 56 VBottom 2
WINDOW 3 32 56 VTop 2
SYMATTR InstName R8
SYMATTR Value 150
SYMATTR SpiceLine tol=1 pwr=1
SYMBOL schottky 176 608 R270
WINDOW 0 32 32 VTop 2
WINDOW 3 0 32 VBottom 2
SYMATTR InstName D5
SYMATTR Value BAT54
SYMATTR Description Diode
SYMATTR Type diode
SYMBOL res 384 576 R90
WINDOW 0 0 56 VBottom 2
WINDOW 3 32 56 VTop 2
SYMATTR InstName R9
SYMATTR Value 680
SYMATTR SpiceLine tol=1 pwr=500m
SYMBOL res 496 576 R90
WINDOW 0 0 56 VBottom 2
WINDOW 3 32 56 VTop 2
SYMATTR InstName R10
SYMATTR Value 47
SYMATTR SpiceLine tol=1 pwr=100m
SYMBOL res 608 576 R90
WINDOW 0 0 56 VBottom 2
WINDOW 3 32 56 VTop 2
SYMATTR InstName R11
SYMATTR Value 15
SYMATTR SpiceLine tol=1 pwr=100m
SYMBOL voltage -240 -48 R0
WINDOW 123 0 0 Left 0
WINDOW 39 0 0 Left 0
SYMATTR InstName V1
SYMATTR Value {Vbatt}
SYMBOL voltage -416 -48 R0
WINDOW 123 0 0 Left 0
WINDOW 39 0 0 Left 0
SYMATTR InstName V2
SYMATTR Value {Valtern}
SYMBOL voltage -592 -48 R0
WINDOW 123 0 0 Left 0
WINDOW 39 0 0 Left 0
SYMATTR InstName V3
SYMATTR Value {Vabs}
SYMBOL voltage -592 352 R0
WINDOW 123 0 0 Left 0
WINDOW 39 0 0 Left 0
SYMATTR InstName V4
SYMATTR Value {VLTurn}
SYMBOL voltage -432 352 R0
WINDOW 123 0 0 Left 0
WINDOW 39 0 0 Left 0
SYMATTR InstName V5
SYMATTR Value {VRTurn}
SYMBOL voltage -592 752 R0
WINDOW 123 0 0 Left 0
WINDOW 39 0 0 Left 0
SYMATTR InstName V6
SYMATTR Value {Vplus}
SYMBOL voltage -432 752 R0
WINDOW 123 0 0 Left 0
WINDOW 39 0 0 Left 0
SYMATTR InstName V7
SYMATTR Value {Vminus}
TEXT 176 800 Left 2 !.step param case 1 12 1
TEXT -208 -224 Left 2 !.param Vbatt=13
TEXT 136 -296 Left 2 !.param Valtern=table(case, 1,Vbatt, 2,0, 3,0, 4,0, 5,0, 6,0, 7,0, 8,0, 9,0, 10,0, 11,0, 12,0) Vabs=table(case, 1,Vbatt, 2,Vbatt, 3,0, 4,0, 5,0, 6,0, 7,0, 8,0, 9,0, 10,0, 11,0, 12,0) VLTurn=table(case, 1,0, 2,0, 3,Vbatt, 4,0, 5,Vbatt, 6,0, 7,0, 8,0, 9,0, 10,0, 11,0, 12,0) VRTurn=table(case, 1,0, 2,0, 3,Vbatt, 4,Vbatt, 5,0, 6,0, 7,0, 8,0, 9,0, 10,0, 11,0, 12,0) Vplus=table(case, 1,0, 2,0, 3,0, 4,0, 5,0, 6,0, 7,Vbatt, 8,0, 9,Vbatt, 10,0, 11,0, 12,0) Vminus=table(case, 1,0, 2,0, 3,0, 4,0, 5,0, 6,0, 7,Vbatt, 8,Vbatt, 9,0, 10,0, 11,0, 12,0)
TEXT -624 904 Left 2 !.op
