Version 4
SHEET 1 2864 1032
WIRE 48 112 -160 112
WIRE 176 112 128 112
WIRE 320 112 176 112
WIRE 496 112 320 112
WIRE 736 112 496 112
WIRE 976 112 832 112
WIRE 1120 112 976 112
WIRE 1248 112 1120 112
WIRE 1504 112 1248 112
WIRE 1760 112 1600 112
WIRE 1856 112 1760 112
WIRE 1968 112 1856 112
WIRE 2112 112 2032 112
WIRE 2304 112 2112 112
WIRE 2480 112 2304 112
WIRE 2656 112 2480 112
WIRE 496 128 496 112
WIRE 976 144 976 112
WIRE 1248 144 1248 112
WIRE 320 160 320 112
WIRE 1856 192 1856 112
WIRE 2112 192 2112 112
WIRE 2304 192 2304 112
WIRE 2480 192 2480 112
WIRE 176 224 176 112
WIRE 160 240 -16 240
WIRE 160 272 128 272
WIRE -16 288 -16 240
WIRE 176 304 176 288
WIRE 320 304 320 224
WIRE 320 304 176 304
WIRE 496 304 496 272
WIRE 496 304 320 304
WIRE 128 320 128 272
WIRE 176 320 176 304
WIRE 816 352 816 160
WIRE 976 352 976 224
WIRE 976 352 816 352
WIRE 1248 352 1248 208
WIRE 1248 352 976 352
WIRE 1520 352 1520 160
WIRE 1520 352 1248 352
WIRE 1856 352 1856 256
WIRE 2112 352 2112 256
WIRE 2112 352 1856 352
WIRE 2304 352 2304 256
WIRE 2304 352 2112 352
WIRE 2480 352 2480 256
WIRE 2480 352 2304 352
WIRE 2480 400 2480 352
WIRE -16 416 -16 368
WIRE 816 432 816 352
WIRE 816 608 816 512
WIRE 256 688 128 688
WIRE 464 688 336 688
WIRE 576 688 464 688
WIRE 688 688 576 688
WIRE 768 688 688 688
WIRE 1424 704 1424 624
WIRE 1840 704 1840 624
WIRE 464 736 464 688
WIRE 576 736 576 688
WIRE 688 736 688 688
WIRE 1424 848 1424 784
WIRE 1840 848 1840 784
WIRE 464 864 464 800
WIRE 576 864 576 816
WIRE 576 864 464 864
WIRE 688 864 688 800
WIRE 688 864 576 864
WIRE 816 864 816 704
WIRE 816 864 688 864
WIRE 816 896 816 864
FLAG -160 112 power_in
FLAG 176 320 0
FLAG 128 320 0
FLAG -16 416 0
FLAG 1120 112 power_mid
FLAG 816 896 0
FLAG 128 688 ignition
FLAG 2480 400 0
FLAG 2656 112 power_switched
FLAG 1760 112 power_pre_filter
FLAG 1424 848 0
FLAG 1840 848 0
FLAG 1424 624 power_in
FLAG 1840 624 ignition
SYMBOL SpecialFunctions\\varistor 192 192 R0
WINDOW 3 0 60 Left 2
SYMATTR Value Rclamp=1n
SYMATTR InstName A1
SYMBOL voltage -16 272 R0
WINDOW 123 0 0 Left 0
WINDOW 39 0 0 Left 0
SYMATTR InstName V1
SYMATTR Value 22
SYMBOL cap 304 160 R0
SYMATTR InstName C1
SYMATTR Value 100n
SYMATTR SpiceLine V=50V
SYMBOL res 480 112 R0
SYMATTR InstName R1
SYMATTR Value 3k
SYMBOL LED 480 208 R0
SYMATTR InstName D1
SYMATTR Value AOT-2015
SYMATTR Description Diode
SYMATTR Type diode
SYMBOL pmos 736 160 R270
SYMATTR InstName M1
SYMATTR Value PJA3441-AU
SYMATTR Prefix X
SYMBOL res 960 128 R0
SYMATTR InstName R2
SYMATTR Value 100k
SYMBOL pmos 1600 160 M270
SYMATTR InstName M2
SYMATTR Value PJA3441-AU
SYMATTR Prefix X
SYMBOL res 800 416 R0
SYMATTR InstName R3
SYMATTR Value 10k
SYMBOL nmos 768 608 R0
SYMATTR InstName M3
SYMATTR Value 2N7002
SYMBOL cap 672 736 R0
SYMATTR InstName C2
SYMATTR Value 100n
SYMATTR SpiceLine V=50
SYMBOL res 560 720 R0
SYMATTR InstName R4
SYMATTR Value 10k
SYMBOL diode 480 800 R180
WINDOW 0 24 64 Left 2
WINDOW 3 24 0 Left 2
SYMATTR InstName D3
SYMATTR Value DI_BZT52C18
SYMATTR Prefix X
SYMBOL res 352 672 R90
WINDOW 0 0 56 VBottom 2
WINDOW 3 32 56 VTop 2
SYMATTR InstName R5
SYMATTR Value 30k
SYMBOL cap 1840 192 R0
SYMATTR InstName C3
SYMATTR Value 10µ
SYMATTR SpiceLine V=25
SYMBOL FerriteBead 2000 112 R90
WINDOW 0 -16 0 VBottom 2
SYMATTR InstName L1
SYMATTR Value 377n
SYMATTR SpiceLine Ipk=3 Rser=0.027 Rpar=177 Cpar=847f
SYMBOL cap 2096 192 R0
SYMATTR InstName C4
SYMATTR Value 10µ
SYMATTR SpiceLine V=25v
SYMBOL cap 2288 192 R0
SYMATTR InstName C5
SYMATTR Value 10µ
SYMATTR SpiceLine V=25v
SYMBOL cap 2464 192 R0
SYMATTR InstName C6
SYMATTR Value 100n
SYMATTR SpiceLine V=50v
SYMBOL voltage 1424 688 R0
WINDOW 3 24 44 Left 2
WINDOW 123 0 0 Left 0
WINDOW 39 0 0 Left 0
SYMATTR Value 14.2
SYMATTR InstName Vbatt
SYMBOL voltage 1840 688 R0
WINDOW 3 24 44 Left 2
WINDOW 123 0 0 Left 0
WINDOW 39 0 0 Left 0
SYMATTR Value {Vignition}
SYMATTR InstName Vignition
SYMBOL diode 1232 208 M180
WINDOW 0 24 64 Left 2
WINDOW 3 24 0 Left 2
SYMATTR InstName D2
SYMATTR Value DI_BZT52C18
SYMATTR Prefix X
SYMBOL res 144 96 R90
WINDOW 0 0 56 VBottom 2
WINDOW 3 32 56 VTop 2
SYMATTR InstName Fuse
SYMATTR Value 45m
TEXT -112 -152 Left 2 !.LIB PJA3441-AU.txt
TEXT -112 -120 Left 2 !.LIB BZT52C18.spice.txt
TEXT 1776 904 Left 2 ;.step param Vignition 0 14.2 14.2
TEXT 1776 936 Left 2 !.noise V(power_switched) Vbatt dec 10 1 10Meg
TEXT 1776 976 Left 2 !.param Vignition=14
TEXT 1776 1016 Left 2 ;.noise V(power_switched,power_pre_filter) Vbatt dec 10 1 10Meg
