Version 4
SHEET 1 880 884
WIRE -1008 -192 -1008 -208
WIRE -784 -192 -784 -208
WIRE -576 -192 -576 -208
WIRE -368 -192 -368 -208
WIRE -1008 -112 -1008 -192
WIRE -784 -112 -784 -192
WIRE -576 -112 -576 -192
WIRE -368 -112 -368 -192
WIRE -80 -64 -80 -128
WIRE 464 -48 464 -128
WIRE -1008 64 -1008 -32
WIRE -784 64 -784 -32
WIRE -576 64 -576 -32
WIRE -368 64 -368 -32
WIRE -80 112 -80 16
WIRE 128 112 -80 112
WIRE 464 112 464 32
WIRE 464 112 320 112
WIRE 624 112 464 112
WIRE 128 208 -80 208
WIRE 464 208 320 208
WIRE 464 272 464 208
WIRE -64 528 -64 464
WIRE 480 544 480 464
WIRE -64 704 -64 608
WIRE 144 704 -64 704
WIRE 480 704 480 624
WIRE 480 704 336 704
WIRE 640 704 480 704
WIRE 144 800 -64 800
WIRE 480 800 336 800
WIRE -64 864 -64 800
WIRE 480 864 480 800
FLAG 464 272 0
FLAG 464 -128 3v3
FLAG -80 -128 prot_12v
FLAG 624 112 act_lo_output
FLAG -80 208 ~HL_Input
FLAG 480 864 0
FLAG 480 464 3v3
FLAG 640 704 act_hi_output
FLAG -64 464 HL_Input
FLAG -64 864 0
FLAG -1008 -192 prot_12V
FLAG -1008 64 0
FLAG -784 -192 ~HL_Input
FLAG -784 64 0
FLAG -576 -192 HL_Input
FLAG -576 64 0
FLAG -368 -192 3v3
FLAG -368 64 0
SYMBOL Optos\\PC817B 224 160 R0
SYMATTR InstName U1
SYMBOL res 448 -64 R0
SYMATTR InstName R1
SYMATTR Value 10k
SYMBOL res -96 -80 R0
SYMATTR InstName R2
SYMATTR Value 8k2
SYMBOL Optos\\PC817B 240 752 R0
SYMATTR InstName U2
SYMBOL res 464 528 R0
SYMATTR InstName R3
SYMATTR Value 10k
SYMBOL res -80 512 R0
SYMATTR InstName R4
SYMATTR Value 8k2
SYMBOL voltage -1008 -128 R0
WINDOW 123 0 0 Left 0
WINDOW 39 0 0 Left 0
SYMATTR InstName Vbatt
SYMATTR Value {Vbatt}
SYMBOL voltage -784 -128 R0
WINDOW 123 0 0 Left 0
WINDOW 39 0 0 Left 0
SYMATTR InstName V~hl
SYMATTR Value {VHL}
SYMBOL voltage -576 -128 R0
WINDOW 123 0 0 Left 0
WINDOW 39 0 0 Left 0
SYMATTR InstName Vhl
SYMATTR Value {VHL}
SYMBOL voltage -368 -128 R0
WINDOW 123 0 0 Left 0
WINDOW 39 0 0 Left 0
SYMATTR InstName 3V#
SYMATTR Value 3.3
TEXT 160 32 Left 2 ;Opto Act Lo
TEXT 176 624 Left 2 ;Opto Act Hi
TEXT -664 192 Left 2 !.step param VHL 0 14.5 0.1
TEXT -664 224 Left 2 !.op
TEXT -664 272 Left 2 !.param Vbatt=14
