Version 4
SHEET 1 1060 680
WIRE 64 112 -160 112
WIRE 208 112 144 112
WIRE 384 112 208 112
WIRE 720 112 720 0
WIRE 208 224 208 176
WIRE 384 256 384 192
WIRE 528 256 384 256
WIRE 720 256 720 176
WIRE 720 256 608 256
WIRE 912 256 720 256
WIRE 384 320 384 256
WIRE 720 320 720 256
WIRE -432 400 -432 336
WIRE -240 400 -240 304
WIRE 384 448 384 400
WIRE 720 448 720 384
WIRE -432 544 -432 480
WIRE -240 544 -240 480
FLAG 912 256 analog_out
FLAG -160 112 analog_in
FLAG 384 448 0
FLAG 720 448 0
FLAG 720 0 3v3
FLAG 208 224 0
FLAG -432 336 3v3
FLAG -432 544 0
FLAG -240 544 0
FLAG -240 304 analog_in
SYMBOL res 160 96 R90
WINDOW 0 0 56 VBottom 2
WINDOW 3 32 56 VTop 2
SYMATTR InstName R1
SYMATTR Value 10
SYMBOL cap 192 112 R0
SYMATTR InstName C1
SYMATTR Value 100n
SYMATTR SpiceLine V=50
SYMBOL res 368 96 R0
SYMATTR InstName R2
SYMATTR Value 100k
SYMBOL res 368 304 R0
SYMATTR InstName R3
SYMATTR Value 150k
SYMBOL res 624 240 R90
WINDOW 0 0 56 VBottom 2
WINDOW 3 32 56 VTop 2
SYMATTR InstName R4
SYMATTR Value 1k
SYMBOL cap 704 320 R0
SYMATTR InstName C2
SYMATTR Value 10n
SYMATTR SpiceLine V=50
SYMBOL schottky 736 176 R180
WINDOW 0 24 64 Left 2
WINDOW 3 24 0 Left 2
SYMATTR InstName D1
SYMATTR Value BAT54
SYMATTR Description Diode
SYMATTR Type diode
SYMBOL voltage -432 384 R0
WINDOW 3 24 152 Left 2
WINDOW 123 24 124 Left 2
WINDOW 39 0 0 Left 0
SYMATTR InstName V2
SYMATTR Value 3.3
SYMBOL voltage -240 384 R0
WINDOW 123 0 0 Left 0
WINDOW 39 0 0 Left 0
SYMATTR InstName V1
SYMATTR Value ""
TEXT 480 520 Left 2 ;.ac dec 10 1 10k
TEXT 480 552 Left 2 !.noise V(analog_out) V1 oct 10 1 16k
