Version 4
SHEET 1 1604 680
WIRE 304 -496 176 -496
WIRE 592 -496 384 -496
WIRE 368 -400 336 -400
WIRE 480 -400 432 -400
WIRE 336 -320 336 -400
WIRE 368 -320 336 -320
WIRE 480 -320 480 -400
WIRE 480 -320 448 -320
WIRE 480 -272 480 -320
WIRE 336 -240 336 -320
WIRE 48 -208 -16 -208
WIRE 176 -208 176 -496
WIRE 176 -208 112 -208
WIRE 224 -208 176 -208
WIRE 272 -208 224 -208
WIRE 336 -208 336 -240
WIRE -16 -176 -16 -208
WIRE 448 -176 400 -176
WIRE 592 -176 592 -496
WIRE 592 -176 448 -176
WIRE 688 -176 592 -176
WIRE 224 -144 176 -144
WIRE 272 -144 224 -144
WIRE 592 -128 592 -176
WIRE 688 -128 688 -176
WIRE 336 -112 336 -144
WIRE 176 -96 176 -144
WIRE -16 -64 -16 -96
WIRE 336 -64 336 -112
WIRE 336 -64 208 -64
WIRE 208 -32 208 -64
WIRE 336 -32 336 -64
WIRE 592 0 592 -48
WIRE 688 0 688 -64
WIRE 208 64 208 32
WIRE 336 64 336 48
WIRE 336 64 208 64
WIRE 336 96 336 64
FLAG 176 -96 0
FLAG 592 0 0
FLAG 688 0 0
FLAG -16 -64 0
FLAG 448 -176 OUTA
FLAG 224 -144 +INA
FLAG 224 -208 -INA
FLAG 336 96 0
FLAG 480 -272 0
FLAG 336 -240 V+
FLAG 336 -112 V-
SYMBOL voltage 336 64 R180
WINDOW 0 -81 72 Left 2
WINDOW 3 -84 48 Left 2
WINDOW 123 0 0 Left 0
WINDOW 39 0 0 Left 0
SYMATTR InstName V-
SYMATTR Value 2.75
SYMBOL voltage 352 -320 R270
WINDOW 0 -43 38 VRight 2
WINDOW 3 -67 38 VRight 2
WINDOW 123 0 0 Left 0
WINDOW 39 0 0 Left 0
SYMATTR InstName V+
SYMATTR Value 2.75
SYMBOL ind 288 -480 R270
WINDOW 0 59 57 VTop 2
WINDOW 3 63 56 VBottom 2
SYMATTR InstName L1
SYMATTR Value 1T
SYMBOL cap 112 -224 R90
WINDOW 0 -27 27 VBottom 2
WINDOW 3 -31 30 VTop 2
SYMATTR InstName C1
SYMATTR Value 1T
SYMBOL res 576 -144 R0
WINDOW 0 39 44 Left 2
WINDOW 3 36 67 Left 2
SYMATTR InstName RL
SYMATTR Value 10k
SYMBOL cap 672 -128 R0
WINDOW 0 42 28 Left 2
WINDOW 3 39 52 Left 2
SYMATTR InstName CL
SYMATTR Value 100p
SYMBOL voltage -16 -192 R0
WINDOW 0 40 30 Left 2
WINDOW 3 -61 176 Left 2
WINDOW 123 40 58 Left 2
WINDOW 39 0 0 Left 0
SYMATTR InstName Vin
SYMATTR Value SINE(0 50m 50k 0)
SYMATTR Value2 AC 1 0
SYMBOL AS2333 336 -176 R0
WINDOW 3 66 22 Top 2
WINDOW 0 -51 -62 Bottom 2
SYMATTR InstName U1
SYMBOL cap 432 -416 R90
WINDOW 0 -24 31 VBottom 2
WINDOW 3 -31 29 VTop 2
SYMATTR InstName C2
SYMATTR Value 100n
SYMBOL cap 192 -32 R0
WINDOW 0 43 15 Left 2
WINDOW 3 43 40 Left 2
SYMATTR InstName C3
SYMATTR Value 100n
TEXT 632 -312 Left 2 !.ac dec 100 1m 1Meg
TEXT -136 224 Left 2 ;Application Notes:\n1. AS2333 LTspice macromodel is unencrypted and will only run in LTSPICE XVII and up\n2. Testbench is designed to observe Frequency Response of the device.\n3. Device is Modeled for Single channel only.\n4. Click LTspice ---> Run  to run the simulation. The simulation runs for 1MHz and takes few seconds \n     to run on intel(R) i3 Core, 3.6GHz and 8GB RAM machine.
TEXT -56 -664 Left 5 ;AS2333 FREQUENCY RESPONSE
TEXT 632 -280 Left 2 !.save V(OUTA)
